OPT_V10/Two_days_first_run/powerflow_results_t25.txt
Pandapower Network Debug Info
==================================================

BUS:
       vm_pu  va_degree      p_mw    q_mvar
0   0.992963   0.152083  0.001158  0.000970
1   0.988851   0.248340  0.001235  0.001834
2   0.985007   0.350363  0.001672  0.003221
3   0.988948   0.259089  0.002364  0.004590
4   0.989068   0.188392  0.003361  0.004805
5   0.991975   0.081256  0.004091  0.005089
6   0.990300   0.075860  0.001236  0.000857
7   0.997063   0.027513  0.002152  0.002364
8   0.997816   0.034087  0.002016  0.002751
9   0.999836   0.001866  0.009584  0.011465
10  0.999842   0.001786  0.009085  0.009890
11  0.999860   0.001596  0.009844  0.009891
12  0.999765   0.000828  0.010341  0.005996
13  0.999736   0.000860  0.013733  0.009487
14  0.999746   0.000894  0.013303  0.012417
15  0.999933   0.000881  0.000000  0.000000
16  0.999933   0.000888  0.000000  0.000000
17  0.999770   0.000869  0.000000  0.000000
18  0.999770   0.000878  0.000000  0.000000
19  1.000000   0.000000 -0.035094 -0.046964
20  1.000000   0.000006  0.000000  0.000000
21  1.000000   0.000000 -0.050385 -0.048868
22  1.000000   0.000007  0.000000  0.000000
--------------------------------------------------

LINE:
    p_from_mw  q_from_mvar   p_to_mw  q_to_mvar         pl_mw       ql_mvar  i_from_ka   i_to_ka      i_ka  vm_from_pu  va_from_degree  vm_to_pu  va_to_degree  loading_percent
0    0.035084     0.042964 -0.035081  -0.042962  3.009523e-06  2.346575e-06   0.002135  0.002135  0.002135    1.000000        0.000006  0.999933      0.000881         0.928261
1    0.050375     0.044868 -0.050362  -0.044859  1.224098e-05  9.544494e-06   0.002597  0.002597  0.002597    1.000000        0.000007  0.999770      0.000869         1.128920
2    0.028516     0.031249 -0.028513  -0.031247  2.475920e-06  1.930515e-06   0.001628  0.001628  0.001628    0.999933        0.000881  0.999860      0.001596         0.707998
3    0.010341     0.005996 -0.010341  -0.005996  4.944008e-08  3.854925e-08   0.000460  0.000460  0.000460    0.999770        0.000869  0.999765      0.000828         0.200094
4    0.027037     0.021905 -0.027037  -0.021905  6.624018e-07  5.164856e-07   0.001340  0.001340  0.001340    0.999770        0.000869  0.999746      0.000894         0.582465
5    0.006555     0.010713 -0.006481  -0.010656  7.378907e-05  5.753455e-05   0.018129  0.018129  0.018129    0.999933        0.000888  0.992963      0.152083         7.882325
6    0.005379     0.005987 -0.005328  -0.005948  5.027875e-05  3.920317e-05   0.011620  0.011620  0.011620    0.999770        0.000878  0.991975      0.081256         5.052008
7    0.002159     0.002370 -0.002152  -0.002364  6.946623e-06  5.416396e-06   0.004628  0.004628  0.004628    0.999770        0.000878  0.997063      0.027513         2.012293
8    0.005435     0.007601 -0.005420  -0.007589  1.502036e-05  1.171162e-05   0.013491  0.013491  0.013491    0.999770        0.000878  0.997816      0.034087         5.865518
9    0.009584     0.011465 -0.009584  -0.011465  7.724574e-08  6.022978e-08   0.000575  0.000575  0.000575    0.999842        0.001786  0.999836      0.001866         0.250110
10   0.018669     0.021356 -0.018669  -0.021355  3.936203e-07  3.069122e-07   0.001092  0.001092  0.001092    0.999860        0.001596  0.999842      0.001786         0.474761
11   0.013733     0.009488 -0.013733  -0.009487  1.363329e-07  1.063010e-07   0.000643  0.000643  0.000643    0.999746        0.000894  0.999736      0.000860         0.279407
12  -0.002920    -0.005065  0.002941   0.005081  2.068223e-05  1.612627e-05   0.008534  0.008534  0.008534    0.988851        0.248340  0.992963      0.152083         3.710453
13  -0.002364    -0.004590  0.002383   0.004604  1.820086e-05  1.419151e-05   0.007536  0.007536  0.007536    0.988948        0.259089  0.992963      0.152083         3.276513
14  -0.001672    -0.003221  0.001685   0.003231  1.228273e-05  9.577045e-06   0.005319  0.005319  0.005319    0.985007        0.350363  0.988851      0.248340         2.312449
15   0.003404     0.004839 -0.003361  -0.004805  4.277588e-05  3.335306e-05   0.008558  0.008558  0.008558    0.997816        0.034087  0.989068      0.188392         3.720914
16  -0.001236    -0.000857  0.001238   0.000859  2.008432e-06  1.566007e-06   0.002192  0.002192  0.002192    0.990300        0.075860  0.991975      0.081256         0.953159
--------------------------------------------------

TRAFO:
    p_hv_mw  q_hv_mvar   p_lv_mw  q_lv_mvar    pl_mw   ql_mvar   i_hv_ka   i_lv_ka  vm_hv_pu  va_hv_degree  vm_lv_pu  va_lv_degree  loading_percent
0  0.006565   0.011713 -0.006555  -0.010713  0.00001  0.001000  0.000517  0.018129  0.999933      0.000881  0.999933      0.000888         0.134283
1  0.012983   0.016957 -0.012973  -0.015958  0.00001  0.000999  0.000822  0.029691  0.999770      0.000869  0.999770      0.000878         0.213619
2  0.035094   0.046964 -0.035084  -0.042964  0.00001  0.004000  0.000484  0.002135  1.000000      0.000000  1.000000      0.000006         0.146569
3  0.050385   0.048868 -0.050375  -0.044868  0.00001  0.004000  0.000579  0.002597  1.000000      0.000000  1.000000      0.000007         0.175477
--------------------------------------------------
